
#======================================================================
# CRYSTAL DATA
#----------------------------------------------------------------------
data_VESTA_phase_1

_chemical_name_common                  'lithium carbide (1/6)'
_cell_length_a                         4.316130
_cell_length_b                         4.316130
_cell_length_c                         11.099581
_cell_angle_alpha                      90.000000
_cell_angle_beta                       90.000000
_cell_angle_gamma                      120.000000
_cell_volume                           179.071418
_space_group_name_H-M_alt              'P 1'
_space_group_IT_number                 1

loop_
_space_group_symop_operation_xyz
   'x, y, z'

loop_
   _atom_site_label
   _atom_site_occupancy
   _atom_site_fract_x
   _atom_site_fract_y
   _atom_site_fract_z
   _atom_site_adp_type
   _atom_site_U_iso_or_equiv
   _atom_site_type_symbol
   Li1        1.0     0.000000     0.000000     0.000000    Uiso  ? Li
   C1         1.0     0.000000     0.325700     0.166667    Uiso  ? C
   C2         1.0    -0.000000     0.674300     0.833333    Uiso  ? C
   C3         1.0     0.674300     0.674300     0.166667    Uiso  ? C
   C4         1.0     0.325700     0.325700     0.833333    Uiso  ? C
   C5         1.0     0.325700     -0.000000     0.166667    Uiso  ? C
   C6         1.0     0.674300     0.000000     0.833333    Uiso  ? C
   C7         1.0    -0.000000     0.674300     0.166667    Uiso  ? C
   C8         1.0     0.000000     0.325700     0.833333    Uiso  ? C
   C9         1.0     0.325700     0.325700     0.166667    Uiso  ? C
   C10        1.0     0.674300     0.674300     0.833333    Uiso  ? C
   C11        1.0     0.674300     -0.000000     0.166667    Uiso  ? C
   C12        1.0     0.325700     0.000000     0.833333    Uiso  ? C
   C13        1.0     0.000000     0.325700     0.500000    Uiso  ? C
   C14        1.0    -0.000000     0.674300     0.500000    Uiso  ? C
   C15        1.0     0.674300     0.674300     0.500000    Uiso  ? C
   C16        1.0     0.325700     0.325700     0.500000    Uiso  ? C
   C17        1.0     0.325700     -0.000000     0.500000    Uiso  ? C
   C18        1.0     0.674300     -0.000000     0.500000    Uiso  ? C
