
#======================================================================
# CRYSTAL DATA
#----------------------------------------------------------------------
data_VESTA_phase_1

_chemical_name_common                  'C1'
_cell_length_a                         7.392(7)
_cell_length_b                         7.392(7)
_cell_length_c                         6.711(4)
_cell_angle_alpha                      90.000000
_cell_angle_beta                       90.000000
_cell_angle_gamma                      120.000000
_cell_volume                           317.571669
_space_group_name_H-M_alt              'P 63/m m c'
_space_group_IT_number                 194

loop_
_space_group_symop_operation_xyz
   'x, y, z'
   '-x, -y, -z'
   '-y, x-y, z'
   'y, -x+y, -z'
   '-x+y, -x, z'
   'x-y, x, -z'
   '-x, -y, z+1/2'
   'x, y, -z+1/2'
   'y, -x+y, z+1/2'
   '-y, x-y, -z+1/2'
   'x-y, x, z+1/2'
   '-x+y, -x, -z+1/2'
   'y, x, -z'
   '-y, -x, z'
   'x-y, -y, -z'
   '-x+y, y, z'
   '-x, -x+y, -z'
   'x, x-y, z'
   '-y, -x, -z+1/2'
   'y, x, z+1/2'
   '-x+y, y, -z+1/2'
   'x-y, -y, z+1/2'
   'x, x-y, -z+1/2'
   '-x, -x+y, z+1/2'
   'x, y+1/3, z'
   '-x, -y+2/3, -z'
   '-y+2/3, x-y+2/3, z'
   'y+1/3, -x+y+1/3, -z'
   '-x+y+1/3, -x, z'
   'x-y+2/3, x, -z'
   '-x, -y+2/3, z+1/2'
   'x, y+1/3, -z+1/2'
   'y+1/3, -x+y+1/3, z+1/2'
   '-y+2/3, x-y+2/3, -z+1/2'
   'x-y+2/3, x, z+1/2'
   '-x+y+1/3, -x, -z+1/2'
   'y+1/3, x, -z'
   '-y+2/3, -x, z'
   'x-y+2/3, -y+2/3, -z'
   '-x+y+1/3, y+1/3, z'
   '-x, -x+y+1/3, -z'
   'x, x-y+2/3, z'
   '-y+2/3, -x, -z+1/2'
   'y+1/3, x, z+1/2'
   '-x+y+1/3, y+1/3, -z+1/2'
   'x-y+2/3, -y+2/3, z+1/2'
   'x, x-y+2/3, -z+1/2'
   '-x, -x+y+1/3, z+1/2'
   'x, y+2/3, z'
   '-x, -y+1/3, -z'
   '-y+1/3, x-y+1/3, z'
   'y+2/3, -x+y+2/3, -z'
   '-x+y+2/3, -x, z'
   'x-y+1/3, x, -z'
   '-x, -y+1/3, z+1/2'
   'x, y+2/3, -z+1/2'
   'y+2/3, -x+y+2/3, z+1/2'
   '-y+1/3, x-y+1/3, -z+1/2'
   'x-y+1/3, x, z+1/2'
   '-x+y+2/3, -x, -z+1/2'
   'y+2/3, x, -z'
   '-y+1/3, -x, z'
   'x-y+1/3, -y+1/3, -z'
   '-x+y+2/3, y+2/3, z'
   '-x, -x+y+2/3, -z'
   'x, x-y+1/3, z'
   '-y+1/3, -x, -z+1/2'
   'y+2/3, x, z+1/2'
   '-x+y+2/3, y+2/3, -z+1/2'
   'x-y+1/3, -y+1/3, z+1/2'
   'x, x-y+1/3, -z+1/2'
   '-x, -x+y+2/3, z+1/2'
   'x+1/3, y, z'
   '-x+2/3, -y, -z'
   '-y, x-y+1/3, z'
   'y, -x+y+2/3, -z'
   '-x+y+2/3, -x+2/3, z'
   'x-y+1/3, x+1/3, -z'
   '-x+2/3, -y, z+1/2'
   'x+1/3, y, -z+1/2'
   'y, -x+y+2/3, z+1/2'
   '-y, x-y+1/3, -z+1/2'
   'x-y+1/3, x+1/3, z+1/2'
   '-x+y+2/3, -x+2/3, -z+1/2'
   'y, x+1/3, -z'
   '-y, -x+2/3, z'
   'x-y+1/3, -y, -z'
   '-x+y+2/3, y, z'
   '-x+2/3, -x+y+2/3, -z'
   'x+1/3, x-y+1/3, z'
   '-y, -x+2/3, -z+1/2'
   'y, x+1/3, z+1/2'
   '-x+y+2/3, y, -z+1/2'
   'x-y+1/3, -y, z+1/2'
   'x+1/3, x-y+1/3, -z+1/2'
   '-x+2/3, -x+y+2/3, z+1/2'
   'x+1/3, y+1/3, z'
   '-x+2/3, -y+2/3, -z'
   '-y+2/3, x-y, z'
   'y+1/3, -x+y, -z'
   '-x+y, -x+2/3, z'
   'x-y, x+1/3, -z'
   '-x+2/3, -y+2/3, z+1/2'
   'x+1/3, y+1/3, -z+1/2'
   'y+1/3, -x+y, z+1/2'
   '-y+2/3, x-y, -z+1/2'
   'x-y, x+1/3, z+1/2'
   '-x+y, -x+2/3, -z+1/2'
   'y+1/3, x+1/3, -z'
   '-y+2/3, -x+2/3, z'
   'x-y, -y+2/3, -z'
   '-x+y, y+1/3, z'
   '-x+2/3, -x+y, -z'
   'x+1/3, x-y, z'
   '-y+2/3, -x+2/3, -z+1/2'
   'y+1/3, x+1/3, z+1/2'
   '-x+y, y+1/3, -z+1/2'
   'x-y, -y+2/3, z+1/2'
   'x+1/3, x-y, -z+1/2'
   '-x+2/3, -x+y, z+1/2'
   'x+1/3, y+2/3, z'
   '-x+2/3, -y+1/3, -z'
   '-y+1/3, x-y+2/3, z'
   'y+2/3, -x+y+1/3, -z'
   '-x+y+1/3, -x+2/3, z'
   'x-y+2/3, x+1/3, -z'
   '-x+2/3, -y+1/3, z+1/2'
   'x+1/3, y+2/3, -z+1/2'
   'y+2/3, -x+y+1/3, z+1/2'
   '-y+1/3, x-y+2/3, -z+1/2'
   'x-y+2/3, x+1/3, z+1/2'
   '-x+y+1/3, -x+2/3, -z+1/2'
   'y+2/3, x+1/3, -z'
   '-y+1/3, -x+2/3, z'
   'x-y+2/3, -y+1/3, -z'
   '-x+y+1/3, y+2/3, z'
   '-x+2/3, -x+y+1/3, -z'
   'x+1/3, x-y+2/3, z'
   '-y+1/3, -x+2/3, -z+1/2'
   'y+2/3, x+1/3, z+1/2'
   '-x+y+1/3, y+2/3, -z+1/2'
   'x-y+2/3, -y+1/3, z+1/2'
   'x+1/3, x-y+2/3, -z+1/2'
   '-x+2/3, -x+y+1/3, z+1/2'
   'x+2/3, y, z'
   '-x+1/3, -y, -z'
   '-y, x-y+2/3, z'
   'y, -x+y+1/3, -z'
   '-x+y+1/3, -x+1/3, z'
   'x-y+2/3, x+2/3, -z'
   '-x+1/3, -y, z+1/2'
   'x+2/3, y, -z+1/2'
   'y, -x+y+1/3, z+1/2'
   '-y, x-y+2/3, -z+1/2'
   'x-y+2/3, x+2/3, z+1/2'
   '-x+y+1/3, -x+1/3, -z+1/2'
   'y, x+2/3, -z'
   '-y, -x+1/3, z'
   'x-y+2/3, -y, -z'
   '-x+y+1/3, y, z'
   '-x+1/3, -x+y+1/3, -z'
   'x+2/3, x-y+2/3, z'
   '-y, -x+1/3, -z+1/2'
   'y, x+2/3, z+1/2'
   '-x+y+1/3, y, -z+1/2'
   'x-y+2/3, -y, z+1/2'
   'x+2/3, x-y+2/3, -z+1/2'
   '-x+1/3, -x+y+1/3, z+1/2'
   'x+2/3, y+1/3, z'
   '-x+1/3, -y+2/3, -z'
   '-y+2/3, x-y+1/3, z'
   'y+1/3, -x+y+2/3, -z'
   '-x+y+2/3, -x+1/3, z'
   'x-y+1/3, x+2/3, -z'
   '-x+1/3, -y+2/3, z+1/2'
   'x+2/3, y+1/3, -z+1/2'
   'y+1/3, -x+y+2/3, z+1/2'
   '-y+2/3, x-y+1/3, -z+1/2'
   'x-y+1/3, x+2/3, z+1/2'
   '-x+y+2/3, -x+1/3, -z+1/2'
   'y+1/3, x+2/3, -z'
   '-y+2/3, -x+1/3, z'
   'x-y+1/3, -y+2/3, -z'
   '-x+y+2/3, y+1/3, z'
   '-x+1/3, -x+y+2/3, -z'
   'x+2/3, x-y+1/3, z'
   '-y+2/3, -x+1/3, -z+1/2'
   'y+1/3, x+2/3, z+1/2'
   '-x+y+2/3, y+1/3, -z+1/2'
   'x-y+1/3, -y+2/3, z+1/2'
   'x+2/3, x-y+1/3, -z+1/2'
   '-x+1/3, -x+y+2/3, z+1/2'
   'x+2/3, y+2/3, z'
   '-x+1/3, -y+1/3, -z'
   '-y+1/3, x-y, z'
   'y+2/3, -x+y, -z'
   '-x+y, -x+1/3, z'
   'x-y, x+2/3, -z'
   '-x+1/3, -y+1/3, z+1/2'
   'x+2/3, y+2/3, -z+1/2'
   'y+2/3, -x+y, z+1/2'
   '-y+1/3, x-y, -z+1/2'
   'x-y, x+2/3, z+1/2'
   '-x+y, -x+1/3, -z+1/2'
   'y+2/3, x+2/3, -z'
   '-y+1/3, -x+1/3, z'
   'x-y, -y+1/3, -z'
   '-x+y, y+2/3, z'
   '-x+1/3, -x+y, -z'
   'x+2/3, x-y, z'
   '-y+1/3, -x+1/3, -z+1/2'
   'y+2/3, x+2/3, z+1/2'
   '-x+y, y+2/3, -z+1/2'
   'x-y, -y+1/3, z+1/2'
   'x+2/3, x-y, -z+1/2'
   '-x+1/3, -x+y, z+1/2'

loop_
   _atom_site_label
   _atom_site_occupancy
   _atom_site_fract_x
   _atom_site_fract_y
   _atom_site_fract_z
   _atom_site_adp_type
   _atom_site_B_iso_or_equiv
   _atom_site_type_symbol
   C1         1.0     0.000000     0.000000     0.250000    Bani  0.584281 C
   C2         1.0     0.111111     0.222222     0.250000    Bani  0.610600 C

loop_
   _atom_site_aniso_label
   _atom_site_aniso_U_11
   _atom_site_aniso_U_22
   _atom_site_aniso_U_33
   _atom_site_aniso_U_12
   _atom_site_aniso_U_13
   _atom_site_aniso_U_23
   C1	 0.00310  0.00310  0.01600  0.00155  0.00000  0.00000
   C2	 0.00310  0.00310  0.01700  0.00155  0.00000  0.00000
